lig_04
  xed2sdf           3D
 
 45 48  0  0  1  0  0  0  0  0999 V2000
  -40.0363  -44.8793   17.4541 C   0  0  0  0  0  0  0  0  0  0  0  0
  -38.7502  -44.8250   16.9768 C   0  0  0  0  0  0  0  0  0  0  0  0
  -40.2737  -45.2493   18.7573 C   0  0  0  0  0  0  0  0  0  0  0  0
  -39.2584  -43.5632   21.9820 C   0  0  0  0  0  0  0  0  0  0  0  0
  -37.9433  -45.5112   19.1015 C   0  0  0  0  0  0  0  0  0  0  0  0
  -35.2928  -45.8204   17.8776 C   0  0  0  0  0  0  0  0  0  0  0  0
  -38.5167  -43.0387   23.0471 C   0  0  0  0  0  0  0  0  0  0  0  0
  -35.9632  -44.3224   16.1869 C   0  0  0  0  0  0  0  0  0  0  0  0
  -33.7811  -44.9726   16.2732 C   0  0  0  0  0  0  0  0  0  0  0  0
  -37.6740  -45.1419   17.7913 C   0  0  0  0  0  0  0  0  0  0  0  0
  -36.3046  -45.0936   17.2855 C   0  0  0  0  0  0  0  0  0  0  0  0
  -39.2284  -45.5697   19.5988 C   0  0  0  0  0  0  0  0  0  0  0  0
  -34.0160  -45.7736   17.3764 C   0  0  0  0  0  0  0  0  0  0  0  0
  -38.9660  -44.8704   21.9851 C   0  0  0  0  0  0  0  0  0  0  0  0
  -37.9532  -47.5098   22.3061 C   0  0  0  0  0  0  0  0  0  0  0  0
  -37.5486  -46.4681   23.3282 C   0  0  0  0  0  0  0  0  0  0  0  0
  -39.4698  -45.9727   21.0610 C   0  0  0  0  0  0  0  0  0  0  0  0
  -40.9410  -46.2833   21.4055 C   0  0  0  0  0  0  0  0  0  0  0  0
  -31.7550  -46.5686   17.3615 C   0  0  0  0  0  0  0  0  0  0  0  0
  -34.7273  -44.2377   15.6613 N   0  0  0  0  0  0  0  0  0  0  0  0
  -37.8431  -44.0024   23.6207 N   0  0  0  0  0  0  0  0  0  0  0  0
  -38.1022  -45.1645   22.9794 N   0  0  0  0  0  0  0  0  0  0  0  0
  -38.8095  -47.2645   21.2996 N   0  3  0  0  0  0  0  0  0  0  0  0
  -37.3799  -48.7022   22.4882 N   0  0  0  0  0  0  0  0  0  0  0  0
  -33.0605  -46.5032   17.9700 O   0  0  0  0  0  0  0  0  0  0  0  0
  -40.8018  -44.6502   16.8530 H   0  0  0  0  0  0  0  0  0  0  0  0
  -38.5949  -44.5595   16.0267 H   0  0  0  0  0  0  0  0  0  0  0  0
  -41.2132  -45.2857   19.0967 H   0  0  0  0  0  0  0  0  0  0  0  0
  -39.8684  -43.0728   21.3595 H   0  0  0  0  0  0  0  0  0  0  0  0
  -37.1849  -45.7382   19.7104 H   0  0  0  0  0  0  0  0  0  0  0  0
  -35.4893  -46.3945   18.6715 H   0  0  0  0  0  0  0  0  0  0  0  0
  -38.5042  -42.0784   23.3261 H   0  0  0  0  0  0  0  0  0  0  0  0
  -36.6825  -43.7837   15.7513 H   0  0  0  0  0  0  0  0  0  0  0  0
  -32.8530  -44.9357   15.9042 H   0  0  0  0  0  0  0  0  0  0  0  0
  -36.3514  -46.3945   23.3641 H   0  0  0  0  0  0  0  0  0  0  0  0
  -37.9572  -46.7945   24.4083 H   0  0  0  0  0  0  0  0  0  0  0  0
  -41.6048  -45.2889   21.3021 H   0  0  0  0  0  0  0  0  0  0  0  0
  -41.0093  -46.6897   22.5325 H   0  0  0  0  0  0  0  0  0  0  0  0
  -41.3537  -47.1217   20.6528 H   0  0  0  0  0  0  0  0  0  0  0  0
  -31.0694  -47.3257   17.9915 H   0  0  0  0  0  0  0  0  0  0  0  0
  -31.2474  -45.4812   17.3650 H   0  0  0  0  0  0  0  0  0  0  0  0
  -31.8489  -46.9702   16.2339 H   0  0  0  0  0  0  0  0  0  0  0  0
  -39.0218  -48.0163   20.6743 H   0  0  0  0  0  0  0  0  0  0  0  0
  -36.7454  -48.8456   23.2487 H   0  0  0  0  0  0  0  0  0  0  0  0
  -37.5825  -49.4571   21.8645 H   0  0  0  0  0  0  0  0  0  0  0  0
  1  2  2  0
  1  3  1  0
  2 10  1  0
  3 12  2  0
  4  7  1  0
  4 14  2  0
  5 10  2  0
  5 12  1  0
  6 11  2  0
  6 13  1  0
  7 21  2  0
  8 11  1  0
  8 20  2  0
  9 13  2  0
  9 20  1  0
 10 11  1  0
 12 17  1  0
 13 25  1  0
 14 17  1  0
 14 22  1  0
 15 16  1  0
 15 23  2  0
 15 24  1  0
 16 22  1  0
 17 18  1  0
 17 23  1  0
 19 25  1  0
 21 22  1  0
  1 26  1  0
  2 27  1  0
  3 28  1  0
  4 29  1  0
  5 30  1  0
  6 31  1  0
  7 32  1  0
  8 33  1  0
  9 34  1  0
 16 35  1  0
 16 36  1  0
 18 37  1  0
 18 38  1  0
 18 39  1  0
 19 40  1  0
 19 41  1  0
 19 42  1  0
 23 43  1  0
 24 44  1  0
 24 45  1  0
M  CHG  1  23   1
M  END
>  <Alignment>
1

>  <Alns>
1

>  <Conformer>
1

>  <Confs>
1

>  <Excl Vol Pen>
0

>  <FScore>
-127.311

>  <FScore+P>
-126.652

>  <FSim>
0.894

>  <Field Penalty>
0

>  <Filename>
lig_04_biphenyl.sdf

>  <Ref>
lig_06

>  <SScore>
207.2

>  <SScore+P>
205.224

>  <SSim>
0.912

>  <Sim>
0.903

>  <_cresset_fieldpoints2>
 2
    -5     -36.705936     -43.833466      25.045113    -11.9117
    -5     -32.889500     -46.767467      20.115805     -3.7543
    -5     -34.350647     -43.095108      14.172133    -10.4530
    -6     -43.203793     -45.634415      19.436907      4.3864
    -6     -38.341656     -43.264221      14.478975      3.9705
    -6     -42.040176     -43.304512      20.326862      3.7947
    -6     -30.934734     -45.039394      15.065193      4.2878
    -6     -35.816196     -48.356056      24.849306      7.9714
    -6     -38.682411     -49.866154      20.316345     11.1451
    -6     -36.384979     -50.829659      22.792383      8.0004
    -7     -43.509590     -46.002766      19.348555     -1.5332
    -7     -38.331589     -43.542568      13.851767     -1.3939
    -7     -42.056061     -42.976048      20.210495     -2.1709
    -7     -38.290855     -42.148804      19.157303     -2.8548
    -7     -38.755135     -48.485535      18.049755     -2.4525
    -7     -32.369869     -43.993767      19.522324     -1.5861
    -7     -35.786308     -48.087551      25.556721     -0.9780
    -7     -40.223743     -49.250225      22.668266     -2.2398
    -7     -34.146557     -48.493431      15.650028     -1.6406
    -7     -30.723082     -44.984955      14.649162     -1.2345
    -7     -35.694244     -44.651535      21.263439     -3.3431
    -7     -36.461849     -48.255615      19.886999     -3.2395
    -7     -40.355732     -45.550697      24.836933     -2.2671
    -7     -35.642715     -47.554226      20.696049     -3.1356
    -8     -38.977943     -45.191875      18.283283      7.2125
    -8     -40.216969     -45.626141      20.212521      5.6306
    -8     -39.243851     -43.662518      21.955765      4.0482
    -8     -37.301109     -44.765682      16.934725      5.6471
    -8     -35.217793     -45.265247      17.138367      5.4397
    -8     -32.787624     -45.671654      16.633532      3.2722
    -8     -36.759705     -45.490040      18.197052      5.7194
    -8     -37.338226     -47.129501      23.444786      2.7669
    -8     -31.035078     -46.542488      16.935692      2.4915

$$$$
