pyflare_stream_756594_1:1
  xed2sdf           3D
 
 48 50  0  0  1  0  0  0  0  0999 V2000
  -33.1215  -47.2753   19.6394 C   0  0  0  0  0  0  0  0  0  0  0  0
  -33.6987  -46.3390   18.6670 N   0  0  0  0  0  0  0  0  0  0  0  0
  -33.3911  -46.7751   17.3100 C   0  0  0  0  0  0  0  0  0  0  0  0
  -33.8219  -45.5670   16.4796 C   0  0  0  0  0  0  0  0  0  0  0  0
  -35.2934  -45.2280   16.6028 C   0  0  0  0  0  0  0  0  0  0  0  0
  -35.8287  -44.6855   15.6484 O   0  0  0  0  0  0  0  0  0  0  0  0
  -35.9096  -45.5587   17.7716 N   0  0  0  0  0  0  0  0  0  0  0  0
  -37.2873  -45.3199   18.0235 C   0  0  0  0  0  0  0  0  0  0  0  0
  -38.0942  -44.7086   17.0771 C   0  0  0  0  0  0  0  0  0  0  0  0
  -39.4247  -44.4788   17.3194 C   0  0  0  0  0  0  0  0  0  0  0  0
  -39.9855  -44.8523   18.5191 C   0  0  0  0  0  0  0  0  0  0  0  0
  -41.2858  -44.6077   18.7258 F   0  0  0  0  0  0  0  0  0  0  0  0
  -39.2190  -45.4674   19.4930 C   0  0  0  0  0  0  0  0  0  0  0  0
  -39.8191  -45.8778   20.8505 C   0  0  0  0  0  0  0  0  0  0  0  0
  -41.0957  -46.7344   20.6962 C   0  0  0  0  0  0  0  0  0  0  0  0
  -38.9047  -46.7667   21.5759 N   0  3  0  0  0  0  0  0  0  0  0  0
  -38.1719  -46.3813   22.6508 C   0  0  0  0  0  0  0  0  0  0  0  0
  -37.3959  -47.2542   23.3249 N   0  0  0  0  0  0  0  0  0  0  0  0
  -38.1807  -45.1234   23.1232 O   0  0  0  0  0  0  0  0  0  0  0  0
  -38.8585  -44.1059   22.3541 C   0  0  0  0  0  0  0  0  0  0  0  0
  -39.1677  -42.8543   23.2012 C   0  0  0  0  0  0  0  0  0  0  0  0
  -37.9922  -42.1801   23.5260 F   0  0  0  0  0  0  0  0  0  0  0  0
  -40.1572  -44.6442   21.7249 C   0  0  0  0  0  0  0  0  0  0  0  0
  -41.0856  -44.9637   22.7182 F   0  0  0  0  0  0  0  0  0  0  0  0
  -37.8850  -45.6919   19.2228 C   0  0  0  0  0  0  0  0  0  0  0  0
  -35.1543  -46.2539   18.8516 C   0  0  0  0  0  0  0  0  0  0  0  0
  -38.1400  -43.7851   21.4482 H   0  0  0  0  0  0  0  0  0  0  0  0
  -40.6422  -43.7857   21.0412 H   0  0  0  0  0  0  0  0  0  0  0  0
  -31.9261  -47.2774   19.5346 H   0  0  0  0  0  0  0  0  0  0  0  0
  -33.4115  -46.9373   20.7539 H   0  0  0  0  0  0  0  0  0  0  0  0
  -33.5317  -48.3854   19.4398 H   0  0  0  0  0  0  0  0  0  0  0  0
  -32.2127  -46.9518   17.1662 H   0  0  0  0  0  0  0  0  0  0  0  0
  -34.0046  -47.7622   17.0101 H   0  0  0  0  0  0  0  0  0  0  0  0
  -33.1817  -44.6152   16.8325 H   0  0  0  0  0  0  0  0  0  0  0  0
  -33.5767  -45.7877   15.3259 H   0  0  0  0  0  0  0  0  0  0  0  0
  -37.7090  -44.4278   16.2010 H   0  0  0  0  0  0  0  0  0  0  0  0
  -39.9888  -44.0365   16.6224 H   0  0  0  0  0  0  0  0  0  0  0  0
  -42.0490  -46.0478   20.4544 H   0  0  0  0  0  0  0  0  0  0  0  0
  -40.9444  -47.5420   19.8213 H   0  0  0  0  0  0  0  0  0  0  0  0
  -41.2994  -47.3190   21.7243 H   0  0  0  0  0  0  0  0  0  0  0  0
  -38.8119  -47.7103   21.2558 H   0  0  0  0  0  0  0  0  0  0  0  0
  -37.3435  -48.2086   23.0309 H   0  0  0  0  0  0  0  0  0  0  0  0
  -36.8696  -46.9539   24.1220 H   0  0  0  0  0  0  0  0  0  0  0  0
  -39.7473  -43.1715   24.2032 H   0  0  0  0  0  0  0  0  0  0  0  0
  -39.8609  -42.1056   22.5698 H   0  0  0  0  0  0  0  0  0  0  0  0
  -37.3334  -46.1410   19.9234 H   0  0  0  0  0  0  0  0  0  0  0  0
  -35.2963  -45.6679   19.8894 H   0  0  0  0  0  0  0  0  0  0  0  0
  -35.6263  -47.3532   18.9510 H   0  0  0  0  0  0  0  0  0  0  0  0
  1  2  1  0
  2  3  1  0
  3  4  1  0
  4  5  1  0
  5  6  2  0
  5  7  1  0
  7  8  1  0
  7 26  1  0
  8  9  2  0
  9 10  1  0
 10 11  2  0
 11 12  1  0
 11 13  1  0
 13 14  1  0
 13 25  2  0
 14 15  1  0
 14 16  1  0
 16 17  2  0
 17 18  1  0
 17 19  1  0
 19 20  1  0
 20 21  1  0
 20 23  1  0
 21 22  1  0
 23 14  1  0
 23 24  1  0
 25  8  1  0
 26  2  1  0
  1 29  1  0
  1 30  1  0
  1 31  1  0
  3 32  1  0
  3 33  1  0
  4 34  1  0
  4 35  1  0
  9 36  1  0
 10 37  1  0
 15 38  1  0
 15 39  1  0
 15 40  1  0
 16 41  1  0
 18 42  1  0
 18 43  1  0
 20 27  1  0
 21 44  1  0
 21 45  1  0
 23 28  1  0
 25 46  1  0
 26 47  1  0
 26 48  1  0
M  CHG  1  16   1
M  END
>  <Alignment>
1

>  <Alns>
1

>  <Conformer>
1

>  <Confs>
1

>  <Excl Vol Pen>
0

>  <FScore>
-114.249

>  <FScore+P>
-112.854

>  <FSim>
0.781

>  <Field Penalty>
0

>  <Filename>
intermediate_bace_combination_67_amide_series~1a_spirocycles.sdf

>  <Ref>
lig_67

>  <SScore>
198.147

>  <SScore+P>
193.963

>  <SSim>
0.839

>  <Sim>
0.81

>  <_cresset_fieldpoints2>
 2
    -5     -36.455227     -44.308815      24.128048     -5.4827
    -5     -32.803963     -44.481289      19.269548     -2.8621
    -5     -35.432861     -44.051342      14.010862    -14.3479
    -5     -43.324085     -43.691746      17.043222     -1.3847
    -5     -39.517086     -46.255604      24.589617     -7.5639
    -5     -37.214409     -44.438869      24.910065     -5.4915
    -6     -35.872326     -49.051945      23.930111      8.1323
    -6     -35.893353     -43.951710      20.975828      2.8541
    -6     -37.293339     -48.867222      21.113113     12.7699
    -6     -31.956614     -47.623562      14.890994      3.2408
    -6     -40.912773     -43.065155      15.058233      1.8010
    -6     -39.632133     -42.011909      20.315664      5.3400
    -7     -35.692177     -44.859768      22.139044     -2.9973
    -7     -38.787991     -48.744137      18.820599     -2.3982
    -7     -38.934982     -42.005836      19.811296     -3.3417
    -7     -36.413799     -48.461609      20.874359     -2.6118
    -7     -31.929504     -49.669731      17.651197     -1.2909
    -7     -39.615936     -48.123009      17.570953     -2.4366
    -7     -34.916367     -43.078926      18.692345     -2.4667
    -7     -36.051216     -43.145161      20.260052     -2.7031
    -7     -43.381645     -43.689583      20.923599     -1.7825
    -7     -36.538471     -48.000507      16.364647     -2.6522
    -7     -40.107487     -48.041809      23.841877     -2.3509
    -7     -39.341877     -45.673920      25.420855     -2.2086
    -7     -42.246861     -41.974049      21.402702     -1.7530
    -7     -44.060734     -46.170021      22.089613     -1.2012
    -8     -33.888020     -46.940418      18.553591      2.9959
    -8     -38.687981     -45.078682      18.291651      7.1143
    -8     -34.422829     -47.145130      19.633224      2.6890
    -8     -33.936893     -46.037479      16.557745      4.1663
    -8     -32.841179     -47.808300      20.133614      2.5545
    -8     -40.332687     -45.325340      19.818712      6.0634
    -8     -39.950844     -43.823963      22.456465      5.3758
    -8     -40.768501     -45.474480      21.263956      5.6605
    -8     -38.910194     -42.987362      22.780430      4.7677

$$$$
