pyflare_stream_760523_1:1
  xed2sdf           3D
 
 35 37  0  0  1  0  0  0  0  0999 V2000
  -41.2348  -46.8455   20.8258 C   0  0  0  0  0  0  0  0  0  0  0  0
  -39.9956  -45.9376   20.9709 C   0  0  0  0  0  0  0  0  0  0  0  0
  -39.3972  -45.5174   19.6164 C   0  0  0  0  0  0  0  0  0  0  0  0
  -38.0469  -45.6746   19.3872 C   0  0  0  0  0  0  0  0  0  0  0  0
  -37.4554  -45.2957   18.1958 C   0  0  0  0  0  0  0  0  0  0  0  0
  -36.0737  -45.4754   18.0184 N   0  0  0  0  0  0  0  0  0  0  0  0
  -35.3214  -45.0912   16.9731 C   0  0  0  0  0  0  0  0  0  0  0  0
  -35.7076  -44.4938   15.9786 O   0  0  0  0  0  0  0  0  0  0  0  0
  -33.4043  -45.5629   17.1248 Br  0  0  0  0  0  0  0  0  0  0  0  0
  -38.2458  -44.7442   17.2038 C   0  0  0  0  0  0  0  0  0  0  0  0
  -39.5925  -44.5781   17.4116 C   0  0  0  0  0  0  0  0  0  0  0  0
  -40.1641  -44.9587   18.6069 C   0  0  0  0  0  0  0  0  0  0  0  0
  -41.4796  -44.7732   18.7762 F   0  0  0  0  0  0  0  0  0  0  0  0
  -40.4264  -44.6896   21.7977 C   0  0  0  0  0  0  0  0  0  0  0  0
  -39.2535  -44.0893   22.4403 N   0  0  0  0  0  0  0  0  0  0  0  0
  -39.0366  -42.8019   22.8091 C   0  0  0  0  0  0  0  0  0  0  0  0
  -37.8209  -42.7640   23.4029 N   0  0  0  0  0  0  0  0  0  0  0  0
  -37.2979  -43.9828   23.4084 N   0  0  0  0  0  0  0  0  0  0  0  0
  -38.1723  -44.8128   22.8150 C   0  0  0  0  0  0  0  0  0  0  0  0
  -38.1073  -46.2719   22.5387 C   0  0  0  0  0  0  0  0  0  0  0  0
  -37.1588  -47.0129   23.1248 N   0  0  0  0  0  0  0  0  0  0  0  0
  -39.0327  -46.7844   21.7064 N   0  3  0  0  0  0  0  0  0  0  0  0
  -42.1986  -46.2190   20.4839 H   0  0  0  0  0  0  0  0  0  0  0  0
  -41.0092  -47.7124   20.0271 H   0  0  0  0  0  0  0  0  0  0  0  0
  -41.4663  -47.3476   21.8909 H   0  0  0  0  0  0  0  0  0  0  0  0
  -37.4767  -46.0725   20.1059 H   0  0  0  0  0  0  0  0  0  0  0  0
  -35.6437  -45.8839   18.6700 H   0  0  0  0  0  0  0  0  0  0  0  0
  -37.8393  -44.4645   16.3350 H   0  0  0  0  0  0  0  0  0  0  0  0
  -40.1614  -44.1772   16.6937 H   0  0  0  0  0  0  0  0  0  0  0  0
  -41.1804  -45.0257   22.6692 H   0  0  0  0  0  0  0  0  0  0  0  0
  -40.9729  -43.8782   21.1028 H   0  0  0  0  0  0  0  0  0  0  0  0
  -39.6567  -42.0297   22.6705 H   0  0  0  0  0  0  0  0  0  0  0  0
  -36.4925  -46.5875   23.7387 H   0  0  0  0  0  0  0  0  0  0  0  0
  -37.1134  -47.9965   22.9499 H   0  0  0  0  0  0  0  0  0  0  0  0
  -39.0382  -47.7724   21.5472 H   0  0  0  0  0  0  0  0  0  0  0  0
  2  1  1  0
  2  3  1  0
  2 14  1  0
  3  4  2  0
  4  5  1  0
  5  6  1  0
  5 10  2  0
  6  7  1  0
  7  8  2  0
  7  9  1  0
 10 11  1  0
 11 12  2  0
 12  3  1  0
 12 13  1  0
 14 15  1  0
 15 16  1  0
 16 17  2  0
 17 18  1  0
 18 19  2  0
 19 15  1  0
 19 20  1  0
 20 21  1  0
 20 22  2  0
 22  2  1  0
  1 23  1  0
  1 24  1  0
  1 25  1  0
  4 26  1  0
  6 27  1  0
 10 28  1  0
 11 29  1  0
 14 30  1  0
 14 31  1  0
 16 32  1  0
 21 33  1  0
 21 34  1  0
 22 35  1  0
M  CHG  1  22   1
M  END
>  <Alignment>
1

>  <Alns>
1

>  <Conformer>
1

>  <Confs>
1

>  <Excl Vol Pen>
0

>  <FScore>
-118.612

>  <FScore+P>
-116.479

>  <FSim>
0.841

>  <Field Penalty>
0

>  <Filename>
intermediate_bace_combination_81_amide_series~1a_spirocycles.sdf

>  <Ref>
lig_81

>  <SScore>
191.992

>  <SScore+P>
185.595

>  <SSim>
0.862

>  <Sim>
0.851

>  <_cresset_fieldpoints2>
 2
    -5     -36.176491     -42.756817      24.164917    -24.5411
    -5     -34.874367     -43.846470      14.473557    -12.9065
    -6     -37.839096     -49.256458      21.704542     14.4660
    -6     -41.675030     -42.044762      22.138092      6.2182
    -6     -35.520657     -48.697071      23.748220      8.7610
    -6     -43.208088     -44.409847      21.982065      5.0786
    -6     -35.527401     -47.089745      20.152340     11.9059
    -6     -40.880024     -43.455570      14.910210      2.1909
    -7     -43.600407     -44.237602      21.338842     -1.7428
    -7     -38.834446     -48.814796      19.129646     -2.2697
    -7     -40.319714     -47.179569      24.185154     -2.4072
    -7     -38.520760     -42.218136      19.669714     -2.8008
    -7     -35.333172     -46.195236      21.242739     -2.6112
    -7     -36.040867     -48.083553      17.187237     -2.0549
    -7     -36.580402     -48.267998      20.510786     -2.3260
    -7     -39.743366     -48.204861      17.728859     -2.3799
    -7     -42.436989     -42.267662      22.566973     -1.2819
    -7     -37.137669     -43.341736      25.697651     -1.2026
    -7     -36.384762     -44.523464      25.550163     -1.1291
    -8     -38.858521     -45.126595      18.412914      7.0878
    -8     -40.526054     -45.461388      19.874861      5.9505
    -8     -34.088226     -45.473152      17.224754      3.7179

$$$$
