pyflare_stream_760427_1:1
  xed2sdf           3D
 
 42 45  0  0  1  0  0  0  0  0999 V2000
  -36.9557  -44.4844   23.5404 C   0  0  0  0  0  0  0  0  0  0  0  0
  -37.9358  -45.1158   22.6712 N   0  0  0  0  0  0  0  0  0  0  0  0
  -38.0328  -46.4650   22.4816 C   0  0  0  0  0  0  0  0  0  0  0  0
  -37.2571  -47.4102   23.0366 N   0  0  0  0  0  0  0  0  0  0  0  0
  -39.0448  -46.6949   21.6443 N   0  3  0  0  0  0  0  0  0  0  0  0
  -39.6730  -45.4580   21.1987 C   0  0  0  0  0  0  0  0  0  0  0  0
  -41.1367  -45.3778   21.6876 C   0  0  0  0  0  0  0  0  0  0  0  0
  -42.0717  -46.1369   20.7270 C   0  0  0  0  0  0  0  0  0  0  0  0
  -41.9777  -45.5031   19.3257 C   0  0  0  0  0  0  0  0  0  0  0  0
  -40.5529  -45.3066   18.8253 C   0  0  0  0  0  0  0  0  0  0  0  0
  -40.3527  -45.1418   17.4734 C   0  0  0  0  0  0  0  0  0  0  0  0
  -39.0862  -44.9555   16.9775 C   0  0  0  0  0  0  0  0  0  0  0  0
  -37.9885  -44.9311   17.8207 C   0  0  0  0  0  0  0  0  0  0  0  0
  -36.6734  -44.7379   17.2237 C   0  0  0  0  0  0  0  0  0  0  0  0
  -35.5230  -44.8310   17.9921 C   0  0  0  0  0  0  0  0  0  0  0  0
  -34.3026  -44.6496   17.4070 C   0  0  0  0  0  0  0  0  0  0  0  0
  -34.2493  -44.3776   16.0647 C   0  0  0  0  0  0  0  0  0  0  0  0
  -35.4212  -44.2980   15.3554 C   0  0  0  0  0  0  0  0  0  0  0  0
  -36.6433  -44.4722   15.8959 N   0  0  0  0  0  0  0  0  0  0  0  0
  -38.2074  -45.0923   19.1815 C   0  0  0  0  0  0  0  0  0  0  0  0
  -39.4743  -45.2769   19.6906 C   0  0  0  0  0  0  0  0  0  0  0  0
  -38.8497  -44.4473   21.9905 C   0  0  0  0  0  0  0  0  0  0  0  0
  -39.0099  -43.2153   22.0385 O   0  0  0  0  0  0  0  0  0  0  0  0
  -35.8531  -44.8397   23.2276 H   0  0  0  0  0  0  0  0  0  0  0  0
  -37.1696  -44.7973   24.6789 H   0  0  0  0  0  0  0  0  0  0  0  0
  -37.0343  -43.2918   23.4335 H   0  0  0  0  0  0  0  0  0  0  0  0
  -36.5188  -47.1505   23.6589 H   0  0  0  0  0  0  0  0  0  0  0  0
  -37.4185  -48.3746   22.8271 H   0  0  0  0  0  0  0  0  0  0  0  0
  -39.3340  -47.6064   21.3520 H   0  0  0  0  0  0  0  0  0  0  0  0
  -41.2174  -45.8429   22.7909 H   0  0  0  0  0  0  0  0  0  0  0  0
  -41.4755  -44.2270   21.7158 H   0  0  0  0  0  0  0  0  0  0  0  0
  -43.2033  -46.0768   21.1215 H   0  0  0  0  0  0  0  0  0  0  0  0
  -41.7249  -47.2841   20.6674 H   0  0  0  0  0  0  0  0  0  0  0  0
  -42.5842  -46.1994   18.5587 H   0  0  0  0  0  0  0  0  0  0  0  0
  -42.5080  -44.4276   19.3665 H   0  0  0  0  0  0  0  0  0  0  0  0
  -41.1336  -45.1579   16.8490 H   0  0  0  0  0  0  0  0  0  0  0  0
  -38.9552  -44.8379   15.9930 H   0  0  0  0  0  0  0  0  0  0  0  0
  -35.5776  -45.0319   18.9681 H   0  0  0  0  0  0  0  0  0  0  0  0
  -33.4641  -44.7145   17.9477 H   0  0  0  0  0  0  0  0  0  0  0  0
  -33.3700  -44.2396   15.6087 H   0  0  0  0  0  0  0  0  0  0  0  0
  -35.3647  -44.0990   14.3772 H   0  0  0  0  0  0  0  0  0  0  0  0
  -37.4346  -45.0751   19.8131 H   0  0  0  0  0  0  0  0  0  0  0  0
  1  2  1  0
  2  3  1  0
  3  4  1  0
  3  5  2  0
  6  5  1  0
  6  7  1  0
  6 22  1  0
  7  8  1  0
  8  9  1  0
  9 10  1  0
 10 11  2  0
 11 12  1  0
 12 13  2  0
 13 14  1  0
 13 20  1  0
 14 15  2  0
 15 16  1  0
 16 17  2  0
 17 18  1  0
 18 19  2  0
 19 14  1  0
 20 21  2  0
 21  6  1  0
 21 10  1  0
 22  2  1  0
 22 23  2  0
  1 24  1  0
  1 25  1  0
  1 26  1  0
  4 27  1  0
  4 28  1  0
  5 29  1  0
  7 30  1  0
  7 31  1  0
  8 32  1  0
  8 33  1  0
  9 34  1  0
  9 35  1  0
 11 36  1  0
 12 37  1  0
 15 38  1  0
 16 39  1  0
 17 40  1  0
 18 41  1  0
 20 42  1  0
M  CHG  1   5   1
M  END
>  <Alignment>
1

>  <Alns>
1

>  <Conformer>
1

>  <Confs>
1

>  <Excl Vol Pen>
0

>  <FScore>
-134.235

>  <FScore+P>
-132.609

>  <FSim>
0.891

>  <Field Penalty>
0

>  <Filename>
intermediate_bace_combination_74_amide_series~32_spirocycles.sdf

>  <Ref>
lig_32

>  <SScore>
192.277

>  <SScore+P>
187.401

>  <SSim>
0.906

>  <Sim>
0.899

>  <_cresset_fieldpoints2>
 2
    -5     -39.935268     -42.240864      20.899332    -19.0700
    -5     -37.462502     -45.696175      14.672840     -7.9841
    -5     -37.710178     -42.996456      15.305023     -9.4787
    -6     -38.727036     -49.365341      21.802567     12.1887
    -6     -35.877178     -49.051781      23.978035      9.0625
    -6     -43.165657     -45.538555      16.327810      3.0297
    -6     -35.316437     -45.539135      20.940516      6.1419
    -6     -35.149624     -46.485458      24.819946      9.2715
    -6     -33.051670     -43.820271      13.443363      3.3157
    -6     -31.377533     -44.530468      17.308901      3.6664
    -7     -35.640556     -46.388020      20.974285     -3.1617
    -7     -40.466366     -42.248409      20.254082     -2.9085
    -7     -34.923904     -46.232159      25.490105     -0.9287
    -7     -39.842968     -48.472954      18.993864     -2.6990
    -7     -39.684269     -45.810593      24.799469     -2.3081
    -7     -40.181858     -48.005489      23.733917     -2.1869
    -7     -43.934223     -43.409428      21.307192     -1.5733
    -7     -45.163094     -45.053570      19.597908     -1.2138
    -7     -43.451847     -44.033878      16.816505     -1.4919
    -7     -37.238499     -47.228775      15.212848     -1.9333
    -7     -30.953651     -44.365150      16.911333     -0.9524
    -7     -37.875095     -41.960724      15.952969     -1.9208
    -7     -32.996906     -43.678028      12.992189     -0.9059
    -7     -36.479378     -42.919945      20.729252     -2.9195
    -8     -36.385075     -44.139900      24.044838      2.4657
    -8     -40.882645     -45.487988      20.232975      6.6859
    -8     -35.085495     -44.592728      16.910881      5.5868
    -8     -39.277111     -45.117954      18.332510      7.1915
    -8     -37.778049     -45.032265      22.785913      2.0834
    -8     -37.034634     -44.944260      18.366566      5.4718

$$$$
