pyflare_stream_752358_1:1
  xed2sdf           3D
 
 49 51  0  0  1  0  0  0  0  0999 V2000
  -28.9541  -46.1436   16.5020 C   0  0  0  0  0  0  0  0  0  0  0  0
  -29.9335  -46.7547   17.3614 O   0  0  0  0  0  0  0  0  0  0  0  0
  -31.1871  -46.3598   17.2276 C   0  0  0  0  0  0  0  0  0  0  0  0
  -32.1503  -46.8991   18.0673 C   0  0  0  0  0  0  0  0  0  0  0  0
  -33.4367  -46.5553   18.0096 N   0  0  0  0  0  0  0  0  0  0  0  0
  -33.7359  -45.6393   17.0642 C   0  0  0  0  0  0  0  0  0  0  0  0
  -35.1498  -45.2095   16.9660 C   0  0  0  0  0  0  0  0  0  0  0  0
  -35.4661  -44.4462   16.0579 O   0  0  0  0  0  0  0  0  0  0  0  0
  -35.9952  -45.6825   17.9077 N   0  0  0  0  0  0  0  0  0  0  0  0
  -37.3580  -45.3992   18.0922 C   0  0  0  0  0  0  0  0  0  0  0  0
  -38.1187  -44.7902   17.1091 C   0  0  0  0  0  0  0  0  0  0  0  0
  -39.4479  -44.5261   17.3331 C   0  0  0  0  0  0  0  0  0  0  0  0
  -40.0303  -44.8678   18.5333 C   0  0  0  0  0  0  0  0  0  0  0  0
  -39.2958  -45.4846   19.5276 C   0  0  0  0  0  0  0  0  0  0  0  0
  -39.9351  -45.8599   20.8735 C   0  0  0  0  0  0  0  0  0  0  0  0
  -41.2779  -46.5955   20.6752 C   0  0  0  0  0  0  0  0  0  0  0  0
  -39.0793  -46.8195   21.5769 N   0  3  0  0  0  0  0  0  0  0  0  0
  -38.2891  -46.4732   22.6025 C   0  0  0  0  0  0  0  0  0  0  0  0
  -37.4640  -47.3357   23.2025 N   0  0  0  0  0  0  0  0  0  0  0  0
  -38.2859  -45.0658   23.1629 C   0  0  0  0  0  0  0  0  0  0  0  0
  -38.8876  -44.0946   22.2364 N   0  0  0  0  0  0  0  0  0  0  0  0
  -39.0666  -42.7957   22.9035 C   0  0  0  0  0  0  0  0  0  0  0  0
  -37.8412  -42.2758   23.3081 F   0  0  0  0  0  0  0  0  0  0  0  0
  -40.1790  -44.5998   21.7440 C   0  0  0  0  0  0  0  0  0  0  0  0
  -41.0393  -44.8833   22.8050 F   0  0  0  0  0  0  0  0  0  0  0  0
  -37.9632  -45.7394   19.2887 C   0  0  0  0  0  0  0  0  0  0  0  0
  -32.7759  -45.1057   16.2223 C   0  0  0  0  0  0  0  0  0  0  0  0
  -31.4816  -45.4482   16.2817 N   0  0  0  0  0  0  0  0  0  0  0  0
  -40.7090  -43.7732   21.0532 H   0  0  0  0  0  0  0  0  0  0  0  0
  -27.8764  -46.6154   16.7384 H   0  0  0  0  0  0  0  0  0  0  0  0
  -29.2287  -46.3485   15.3515 H   0  0  0  0  0  0  0  0  0  0  0  0
  -28.9160  -44.9603   16.7011 H   0  0  0  0  0  0  0  0  0  0  0  0
  -31.8692  -47.5747   18.7494 H   0  0  0  0  0  0  0  0  0  0  0  0
  -35.6383  -46.2283   18.5013 H   0  0  0  0  0  0  0  0  0  0  0  0
  -37.7048  -44.5405   16.2348 H   0  0  0  0  0  0  0  0  0  0  0  0
  -39.9946  -44.0832   16.6225 H   0  0  0  0  0  0  0  0  0  0  0  0
  -40.9974  -44.6660   18.6855 H   0  0  0  0  0  0  0  0  0  0  0  0
  -42.0977  -45.8350   20.2405 H   0  0  0  0  0  0  0  0  0  0  0  0
  -41.1238  -47.5010   19.9027 H   0  0  0  0  0  0  0  0  0  0  0  0
  -41.6639  -47.0436   21.7194 H   0  0  0  0  0  0  0  0  0  0  0  0
  -39.0611  -47.7677   21.2577 H   0  0  0  0  0  0  0  0  0  0  0  0
  -37.4133  -48.2825   22.8847 H   0  0  0  0  0  0  0  0  0  0  0  0
  -36.8943  -47.0419   23.9709 H   0  0  0  0  0  0  0  0  0  0  0  0
  -37.1556  -44.7324   23.3899 H   0  0  0  0  0  0  0  0  0  0  0  0
  -38.8934  -45.0923   24.1977 H   0  0  0  0  0  0  0  0  0  0  0  0
  -39.7831  -42.9071   23.8595 H   0  0  0  0  0  0  0  0  0  0  0  0
  -39.5607  -42.0121   22.1405 H   0  0  0  0  0  0  0  0  0  0  0  0
  -37.4172  -46.1810   20.0005 H   0  0  0  0  0  0  0  0  0  0  0  0
  -33.0603  -44.4308   15.5414 H   0  0  0  0  0  0  0  0  0  0  0  0
  1  2  1  0
  2  3  1  0
  3  4  2  0
  4  5  1  0
  5  6  2  0
  6  7  1  0
  6 27  1  0
  7  8  2  0
  7  9  1  0
  9 10  1  0
 10 11  2  0
 11 12  1  0
 12 13  2  0
 13 14  1  0
 14 15  1  0
 14 26  2  0
 15 16  1  0
 15 17  1  0
 17 18  2  0
 18 19  1  0
 18 20  1  0
 20 21  1  0
 21 22  1  0
 21 24  1  0
 22 23  1  0
 24 15  1  0
 24 25  1  0
 26 10  1  0
 27 28  2  0
 28  3  1  0
  1 30  1  0
  1 31  1  0
  1 32  1  0
  4 33  1  0
  9 34  1  0
 11 35  1  0
 12 36  1  0
 13 37  1  0
 16 38  1  0
 16 39  1  0
 16 40  1  0
 17 41  1  0
 19 42  1  0
 19 43  1  0
 20 44  1  0
 20 45  1  0
 22 46  1  0
 22 47  1  0
 24 29  1  0
 26 48  1  0
 27 49  1  0
M  CHG  1  17   1
M  END
>  <Alignment>
1

>  <Alns>
1

>  <Conformer>
1

>  <Confs>
1

>  <Excl Vol Pen>
0

>  <FScore>
-120.869

>  <FScore+P>
-118.338

>  <FSim>
0.8

>  <Field Penalty>
0

>  <Filename>
intermediate_bace_combination_06_biphenyl~67_amide_series.sdf

>  <Ref>
lig_67

>  <SScore>
230.943

>  <SScore+P>
223.353

>  <SSim>
0.946

>  <Sim>
0.873

>  <_cresset_fieldpoints2>
 2
    -5     -28.899906     -48.338852      18.553278     -2.4624
    -5     -37.272022     -43.441246      20.761347     -6.6394
    -5     -39.416824     -47.517605      16.785181     -2.7469
    -5     -36.001541     -43.064281      14.846050    -11.0783
    -5     -40.081272     -47.306538      23.890732     -5.0660
    -5     -30.570129     -44.398430      14.952943     -3.5853
    -6     -26.652805     -46.115070      14.671955      2.0589
    -6     -26.385181     -44.805153      15.983456      2.0682
    -6     -38.051506     -49.388699      21.393238     10.7231
    -6     -35.665100     -47.496704      19.935041      8.5562
    -6     -31.922966     -48.826855      20.330044      3.4773
    -6     -42.468170     -43.546993      19.741220      5.0831
    -6     -41.387779     -41.761162      20.938791      4.6076
    -6     -39.594971     -43.739948      26.001358      1.9534
    -6     -35.959145     -48.953636      24.115261      7.4036
    -7     -30.250975     -43.911243      14.513317     -1.4902
    -7     -31.360401     -47.388695      14.122923     -1.5157
    -7     -36.219379     -43.743000      20.960611     -2.8141
    -7     -35.946701     -48.204273      16.859947     -2.1036
    -7     -26.699986     -45.772537      14.188375     -0.6471
    -7     -34.959492     -44.582626      20.312107     -2.4118
    -7     -30.526400     -43.242161      17.982613     -1.5271
    -7     -35.533302     -46.129532      21.479811     -2.7054
    -7     -39.179604     -48.718647      18.699062     -2.2271
    -7     -39.715694     -48.231365      17.749069     -2.2609
    -7     -42.850723     -43.432583      19.811613     -2.0564
    -7     -40.347881     -48.071201      23.705091     -2.4873
    -7     -40.348686     -44.111305      26.023689     -1.4198
    -7     -38.891045     -43.576706      26.252216     -1.4284
    -7     -42.198780     -41.865807      22.054214     -1.5714
    -7     -36.844223     -45.166313      26.013676     -1.2134
    -7     -38.024597     -42.418137      19.902222     -3.2401
    -8     -28.345539     -45.781281      15.990189      2.4089
    -8     -32.566200     -46.019402      17.188360      2.7949
    -8     -33.727997     -45.040676      16.539967      3.2465
    -8     -31.739759     -47.448132      17.617579      2.2097
    -8     -38.735146     -45.129463      18.324638      7.0627
    -8     -31.529272     -46.527397      18.454071      2.2076
    -8     -40.386097     -45.458996      19.954407      5.6691
    -8     -40.900158     -45.461273      21.310955      5.4365
    -8     -38.355728     -43.483154      23.602657      3.3319
    -8     -38.881077     -42.168526      23.310476      3.4669
    -8     -39.580536     -44.342850      22.786167      3.5785

$$$$
