pyflare_stream_748056_1:1
  xed2sdf           3D
 
 53 56  0  0  1  0  0  0  0  0999 V2000
  -31.2372  -46.9068   18.8670 C   0  0  0  0  0  0  0  0  0  0  0  0
  -32.3838  -46.2596   18.2270 C   0  0  0  0  0  0  0  0  0  0  0  0
  -33.3538  -45.7343   17.7062 C   0  0  0  0  0  0  0  0  0  0  0  0
  -34.5034  -45.1214   17.0931 C   0  0  0  0  0  0  0  0  0  0  0  0
  -34.3720  -44.3981   15.9158 C   0  0  0  0  0  0  0  0  0  0  0  0
  -35.4822  -43.8342   15.3390 C   0  0  0  0  0  0  0  0  0  0  0  0
  -36.7200  -43.9850   15.9227 C   0  0  0  0  0  0  0  0  0  0  0  0
  -36.8765  -44.7003   17.1038 C   0  0  0  0  0  0  0  0  0  0  0  0
  -38.1873  -44.8623   17.7214 C   0  0  0  0  0  0  0  0  0  0  0  0
  -39.3478  -44.8265   16.9640 C   0  0  0  0  0  0  0  0  0  0  0  0
  -40.5763  -44.9921   17.5507 C   0  0  0  0  0  0  0  0  0  0  0  0
  -40.6837  -45.1948   18.9130 C   0  0  0  0  0  0  0  0  0  0  0  0
  -39.5348  -45.2185   19.6948 C   0  0  0  0  0  0  0  0  0  0  0  0
  -38.3101  -45.0585   19.0891 C   0  0  0  0  0  0  0  0  0  0  0  0
  -39.5973  -45.4063   21.2159 C   0  0  0  0  0  0  0  0  0  0  0  0
  -41.0412  -45.5797   21.7526 C   0  0  0  0  0  0  0  0  0  0  0  0
  -42.0450  -46.1019   20.6948 C   0  0  0  0  0  0  0  0  0  0  0  0
  -43.4621  -45.9128   21.2654 C   0  0  0  0  0  0  0  0  0  0  0  0
  -41.8689  -47.6166   20.4511 C   0  0  0  0  0  0  0  0  0  0  0  0
  -41.9315  -45.3578   19.4585 O   0  0  0  0  0  0  0  0  0  0  0  0
  -38.8722  -46.6223   21.6048 N   0  3  0  0  0  0  0  0  0  0  0  0
  -38.0210  -46.6694   22.6400 C   0  0  0  0  0  0  0  0  0  0  0  0
  -37.3917  -47.7904   23.0051 N   0  0  0  0  0  0  0  0  0  0  0  0
  -37.7167  -45.4285   23.4520 C   0  0  0  0  0  0  0  0  0  0  0  0
  -37.6953  -44.2122   22.5179 C   0  0  0  0  0  0  0  0  0  0  0  0
  -39.0399  -44.1367   21.8413 C   0  0  0  0  0  0  0  0  0  0  0  0
  -39.6505  -43.0920   21.8480 O   0  0  0  0  0  0  0  0  0  0  0  0
  -35.7514  -45.2627   17.6792 C   0  0  0  0  0  0  0  0  0  0  0  0
  -30.2202  -46.4564   18.4166 H   0  0  0  0  0  0  0  0  0  0  0  0
  -31.2746  -46.7074   20.0497 H   0  0  0  0  0  0  0  0  0  0  0  0
  -31.2788  -48.0883   18.6606 H   0  0  0  0  0  0  0  0  0  0  0  0
  -33.4740  -44.2902   15.4894 H   0  0  0  0  0  0  0  0  0  0  0  0
  -35.3922  -43.3123   14.4908 H   0  0  0  0  0  0  0  0  0  0  0  0
  -37.5166  -43.5661   15.4890 H   0  0  0  0  0  0  0  0  0  0  0  0
  -39.2926  -44.6863   15.9763 H   0  0  0  0  0  0  0  0  0  0  0  0
  -41.4010  -44.9676   16.9855 H   0  0  0  0  0  0  0  0  0  0  0  0
  -37.4877  -45.0781   19.6550 H   0  0  0  0  0  0  0  0  0  0  0  0
  -41.0272  -46.3068   22.7069 H   0  0  0  0  0  0  0  0  0  0  0  0
  -41.4201  -44.5019   22.1179 H   0  0  0  0  0  0  0  0  0  0  0  0
  -44.2801  -46.3247   20.4899 H   0  0  0  0  0  0  0  0  0  0  0  0
  -43.5504  -46.5225   22.2951 H   0  0  0  0  0  0  0  0  0  0  0  0
  -43.6808  -44.7509   21.4720 H   0  0  0  0  0  0  0  0  0  0  0  0
  -40.8546  -47.8254   19.8466 H   0  0  0  0  0  0  0  0  0  0  0  0
  -42.7794  -48.0309   19.7884 H   0  0  0  0  0  0  0  0  0  0  0  0
  -41.8492  -48.2026   21.4980 H   0  0  0  0  0  0  0  0  0  0  0  0
  -39.0278  -47.4608   21.0848 H   0  0  0  0  0  0  0  0  0  0  0  0
  -37.5467  -48.6375   22.4969 H   0  0  0  0  0  0  0  0  0  0  0  0
  -36.7663  -47.7933   23.7860 H   0  0  0  0  0  0  0  0  0  0  0  0
  -38.5694  -45.2775   24.2828 H   0  0  0  0  0  0  0  0  0  0  0  0
  -36.6470  -45.5111   23.9894 H   0  0  0  0  0  0  0  0  0  0  0  0
  -36.8443  -44.3988   21.6932 H   0  0  0  0  0  0  0  0  0  0  0  0
  -37.4623  -43.1964   23.1127 H   0  0  0  0  0  0  0  0  0  0  0  0
  -35.8359  -45.7875   18.5251 H   0  0  0  0  0  0  0  0  0  0  0  0
  1  2  1  0
  2  3  3  0
  3  4  1  0
  4  5  2  0
  5  6  1  0
  6  7  2  0
  7  8  1  0
  8  9  1  0
  8 28  2  0
  9 10  2  0
 10 11  1  0
 11 12  2  0
 12 13  1  0
 13 14  2  0
 13 15  1  0
 14  9  1  0
 15 16  1  0
 15 21  1  0
 16 17  1  0
 17 18  1  0
 17 19  1  0
 17 20  1  0
 20 12  1  0
 21 22  2  0
 22 23  1  0
 22 24  1  0
 24 25  1  0
 25 26  1  0
 26 15  1  0
 26 27  2  0
 28  4  1  0
  1 29  1  0
  1 30  1  0
  1 31  1  0
  5 32  1  0
  6 33  1  0
  7 34  1  0
 10 35  1  0
 11 36  1  0
 14 37  1  0
 16 38  1  0
 16 39  1  0
 18 40  1  0
 18 41  1  0
 18 42  1  0
 19 43  1  0
 19 44  1  0
 19 45  1  0
 21 46  1  0
 23 47  1  0
 23 48  1  0
 24 49  1  0
 24 50  1  0
 25 51  1  0
 25 52  1  0
 28 53  1  0
M  CHG  1  21   1
M  END
>  <Alignment>
1

>  <Alns>
1

>  <Conformer>
1

>  <Confs>
1

>  <Excl Vol Pen>
0

>  <FScore>
-124.298

>  <FScore+P>
-119.117

>  <FSim>
0.75

>  <Field Penalty>
0

>  <Filename>
intermediate_bace_combination_05_biphenyl~36_spirocycles.sdf

>  <Ref>
lig_36

>  <SScore>
235.776

>  <SScore+P>
220.234

>  <SSim>
0.901

>  <Sim>
0.826

>  <_cresset_fieldpoints2>
 2
    -5     -36.053596     -47.047443      15.146866     -3.5594
    -5     -35.467972     -42.117008      18.074444     -3.7369
    -5     -41.017895     -42.533379      20.668419    -14.4116
    -5     -39.470615     -41.325489      22.287041    -12.4730
    -5     -39.480804     -47.732700      24.135805     -2.2316
    -6     -35.703705     -45.992504      20.540840      4.8735
    -6     -38.731480     -49.352058      21.068392     11.3130
    -6     -33.570423     -42.872173      13.239798      2.5195
    -6     -36.310318     -49.845474      23.566822      7.4907
    -6     -39.197720     -43.583664      14.182289      4.0891
    -6     -42.216145     -47.997639      23.754780      3.5852
    -6     -35.484123     -47.468201      25.169930      6.8638
    -7     -35.959488     -46.791630      20.687441     -3.7445
    -7     -36.831059     -47.343597      15.180460     -2.1761
    -7     -30.916855     -44.544006      15.802756     -1.5971
    -7     -32.957722     -42.955772      13.217936     -0.9996
    -7     -32.862133     -41.883579      14.316153     -0.9960
    -7     -41.612804     -42.538841      20.501083     -3.0215
    -7     -39.373230     -41.960766      19.666937     -2.7972
    -7     -42.725742     -44.995712      24.413195     -1.6011
    -7     -44.575516     -48.977856      21.686913     -1.4096
    -7     -43.682678     -46.533634      17.748524     -2.3526
    -7     -38.686111     -48.231758      18.515505     -2.9292
    -7     -36.202137     -42.685059      19.805079     -2.8549
    -7     -42.301785     -48.017605      24.022421     -1.6469
    -7     -40.077080     -48.585651      23.283178     -2.7443
    -7     -40.505722     -43.482903      24.308464     -2.2746
    -8     -32.180901     -46.391338      18.357027      4.2624
    -8     -35.621140     -44.554295      16.517014      7.1887
    -8     -39.403278     -45.025005      18.308086      7.0957
    -8     -37.864227     -44.532494      16.767931      5.7494
    -8     -37.193703     -45.035046      18.069704      5.8009
    -8     -42.120293     -46.506832      21.404104      5.4001
    -8     -40.497311     -45.526920      20.592890      5.2173
    -8     -38.241684     -45.020103      22.522358      5.2914

$$$$
