pyflare_stream_756415_1:1
  xed2sdf           3D
 
 30 31  0  0  1  0  0  0  0  0999 V2000
  -41.1076  -46.6056   20.9579 C   0  0  0  0  0  0  0  0  0  0  0  0
  -39.7589  -45.8644   20.8854 C   0  0  0  0  0  0  0  0  0  0  0  0
  -39.2537  -45.5488   19.4731 C   0  0  0  0  0  0  0  0  0  0  0  0
  -37.9469  -45.8315   19.1336 C   0  0  0  0  0  0  0  0  0  0  0  0
  -37.4551  -45.5418   17.8797 C   0  0  0  0  0  0  0  0  0  0  0  0
  -36.1799  -45.8222   17.5791 F   0  0  0  0  0  0  0  0  0  0  0  0
  -38.2749  -44.9608   16.9388 C   0  0  0  0  0  0  0  0  0  0  0  0
  -39.5788  -44.6701   17.2601 C   0  0  0  0  0  0  0  0  0  0  0  0
  -40.0636  -44.9588   18.5180 C   0  0  0  0  0  0  0  0  0  0  0  0
  -41.3354  -44.6525   18.8052 F   0  0  0  0  0  0  0  0  0  0  0  0
  -39.9034  -44.5576   21.6101 C   0  0  0  0  0  0  0  0  0  0  0  0
  -39.1136  -44.2287   22.7265 C   0  0  0  0  0  0  0  0  0  0  0  0
  -39.1439  -42.9363   23.5047 C   0  0  0  0  0  0  0  0  0  0  0  0
  -37.9343  -42.2584   23.3804 F   0  0  0  0  0  0  0  0  0  0  0  0
  -38.2357  -45.0848   23.2415 O   0  0  0  0  0  0  0  0  0  0  0  0
  -38.1144  -46.3164   22.6948 C   0  0  0  0  0  0  0  0  0  0  0  0
  -37.2334  -47.1270   23.3077 N   0  0  0  0  0  0  0  0  0  0  0  0
  -38.8227  -46.7194   21.6132 N   0  3  0  0  0  0  0  0  0  0  0  0
  -42.0193  -45.8648   20.7165 H   0  0  0  0  0  0  0  0  0  0  0  0
  -41.2510  -47.0339   22.0694 H   0  0  0  0  0  0  0  0  0  0  0  0
  -41.1068  -47.5190   20.1798 H   0  0  0  0  0  0  0  0  0  0  0  0
  -37.3441  -46.2521   19.8115 H   0  0  0  0  0  0  0  0  0  0  0  0
  -37.9224  -44.7492   16.0271 H   0  0  0  0  0  0  0  0  0  0  0  0
  -40.1770  -44.2452   16.5807 H   0  0  0  0  0  0  0  0  0  0  0  0
  -40.5714  -43.9025   21.2863 H   0  0  0  0  0  0  0  0  0  0  0  0
  -40.0143  -42.2411   23.0589 H   0  0  0  0  0  0  0  0  0  0  0  0
  -39.3707  -43.1645   24.6608 H   0  0  0  0  0  0  0  0  0  0  0  0
  -36.7257  -46.7985   24.1041 H   0  0  0  0  0  0  0  0  0  0  0  0
  -37.0836  -48.0566   22.9709 H   0  0  0  0  0  0  0  0  0  0  0  0
  -38.6893  -47.6536   21.2818 H   0  0  0  0  0  0  0  0  0  0  0  0
  2  1  1  0
  2  3  1  0
  2 11  1  0
  3  4  2  0
  4  5  1  0
  5  6  1  0
  5  7  2  0
  7  8  1  0
  8  9  2  0
  9  3  1  0
  9 10  1  0
 11 12  2  0
 12 13  1  0
 12 15  1  0
 13 14  1  0
 15 16  1  0
 16 17  1  0
 16 18  2  0
 18  2  1  0
  1 19  1  0
  1 20  1  0
  1 21  1  0
  4 22  1  0
  7 23  1  0
  8 24  1  0
 11 25  1  0
 13 26  1  0
 13 27  1  0
 17 28  1  0
 17 29  1  0
 18 30  1  0
M  CHG  1  18   1
M  END
>  <Alignment>
1

>  <Alns>
1

>  <Conformer>
1

>  <Confs>
1

>  <Excl Vol Pen>
0

>  <FScore>
-84.984

>  <FScore+P>
-84.645

>  <FSim>
0.762

>  <Field Penalty>
0

>  <Filename>
intermediate_bace_combination_45_amide_series~11_spirocycles.sdf

>  <Ref>
lig_45

>  <SScore>
150.536

>  <SScore+P>
149.517

>  <SSim>
0.802

>  <Sim>
0.782

>  <_cresset_fieldpoints2>
 2
    -5     -39.477821     -46.093559      24.598789     -4.7554
    -5     -34.212154     -45.374073      15.635874     -1.5174
    -5     -43.566673     -43.503731      17.540995     -1.1762
    -5     -36.572365     -44.427666      22.330362     -8.1450
    -6     -37.580288     -49.199005      21.498341     12.0766
    -6     -41.772209     -42.575748      24.432213      3.6940
    -6     -42.068108     -42.700424      22.617737      3.8304
    -6     -35.751991     -48.734398      24.238161      7.9582
    -6     -39.396133     -43.793453      14.430144      3.5684
    -7     -39.998020     -48.282803      17.824379     -2.3954
    -7     -40.534554     -46.105980      24.399805     -2.3661
    -7     -39.727352     -48.634880      23.446318     -1.9468
    -7     -38.367523     -42.453728      20.069767     -3.2079
    -7     -39.451920     -43.648701      14.039421     -1.0152
    -7     -40.303684     -40.500332      25.317753     -0.8418
    -7     -41.859890     -44.982178      23.776268     -2.1413
    -7     -38.928913     -45.727989      25.458977     -1.9743
    -7     -36.365562     -44.339100      21.451260     -2.9247
    -8     -40.315140     -45.313782      19.891504      6.0377
    -8     -38.764931     -45.250786      18.203810      7.2371
    -8     -39.005970     -43.004070      23.053888      4.5291
    -8     -39.646061     -43.483860      22.461355      4.5615

$$$$
