pyflare_stream_710311_1:1
  xed2sdf           3D
 
 35 37  0  0  1  0  0  0  0  0999 V2000
  -36.6385  -45.8294   19.8449 C   0  0  0  0  0  0  0  0  0  0  0  0
  -37.8878  -45.5036   19.0382 C   0  0  0  0  0  0  0  0  0  0  0  0
  -37.7148  -45.1341   17.7180 C   0  0  0  0  0  0  0  0  0  0  0  0
  -35.9939  -45.0378   16.9585 Br  0  0  0  0  0  0  0  0  0  0  0  0
  -38.8001  -44.8279   16.9317 C   0  0  0  0  0  0  0  0  0  0  0  0
  -40.0638  -44.8891   17.4630 C   0  0  0  0  0  0  0  0  0  0  0  0
  -40.2351  -45.2554   18.7767 C   0  0  0  0  0  0  0  0  0  0  0  0
  -39.1618  -45.5692   19.5885 C   0  0  0  0  0  0  0  0  0  0  0  0
  -39.4447  -45.9637   21.0541 C   0  0  0  0  0  0  0  0  0  0  0  0
  -40.9220  -46.2659   21.3869 C   0  0  0  0  0  0  0  0  0  0  0  0
  -38.8186  -47.2674   21.3163 N   0  3  0  0  0  0  0  0  0  0  0  0
  -37.9659  -47.5140   22.3255 C   0  0  0  0  0  0  0  0  0  0  0  0
  -37.3986  -48.7086   22.5119 N   0  0  0  0  0  0  0  0  0  0  0  0
  -37.5596  -46.4721   23.3471 C   0  0  0  0  0  0  0  0  0  0  0  0
  -38.1109  -45.1668   23.0002 N   0  0  0  0  0  0  0  0  0  0  0  0
  -37.8631  -44.0090   23.6535 N   0  0  0  0  0  0  0  0  0  0  0  0
  -38.5308  -43.0424   23.0775 C   0  0  0  0  0  0  0  0  0  0  0  0
  -39.2561  -43.5605   21.9981 C   0  0  0  0  0  0  0  0  0  0  0  0
  -38.9607  -44.8668   21.9959 C   0  0  0  0  0  0  0  0  0  0  0  0
  -35.6513  -45.7123   19.1713 H   0  0  0  0  0  0  0  0  0  0  0  0
  -36.5545  -45.0846   20.7816 H   0  0  0  0  0  0  0  0  0  0  0  0
  -36.7035  -46.9603   20.2407 H   0  0  0  0  0  0  0  0  0  0  0  0
  -38.6690  -44.5614   15.9769 H   0  0  0  0  0  0  0  0  0  0  0  0
  -40.8575  -44.6676   16.8966 H   0  0  0  0  0  0  0  0  0  0  0  0
  -41.1613  -45.2949   19.1493 H   0  0  0  0  0  0  0  0  0  0  0  0
  -41.5759  -45.2609   21.3291 H   0  0  0  0  0  0  0  0  0  0  0  0
  -40.9939  -46.7184   22.4959 H   0  0  0  0  0  0  0  0  0  0  0  0
  -41.3468  -47.0669   20.6011 H   0  0  0  0  0  0  0  0  0  0  0  0
  -39.0448  -48.0233   20.7010 H   0  0  0  0  0  0  0  0  0  0  0  0
  -37.6028  -49.4640   21.8892 H   0  0  0  0  0  0  0  0  0  0  0  0
  -36.7662  -48.8530   23.2739 H   0  0  0  0  0  0  0  0  0  0  0  0
  -36.3624  -46.4017   23.3866 H   0  0  0  0  0  0  0  0  0  0  0  0
  -37.9716  -46.7982   24.4259 H   0  0  0  0  0  0  0  0  0  0  0  0
  -38.5241  -42.0842   23.3634 H   0  0  0  0  0  0  0  0  0  0  0  0
  -39.8578  -43.0667   21.3702 H   0  0  0  0  0  0  0  0  0  0  0  0
  1  2  1  0
  2  3  2  0
  3  4  1  0
  3  5  1  0
  5  6  2  0
  6  7  1  0
  7  8  2  0
  8  2  1  0
  8  9  1  0
  9 10  1  0
  9 11  1  0
 11 12  2  0
 12 13  1  0
 12 14  1  0
 14 15  1  0
 15 16  1  0
 16 17  2  0
 17 18  1  0
 18 19  2  0
 19  9  1  0
 19 15  1  0
  1 20  1  0
  1 21  1  0
  1 22  1  0
  5 23  1  0
  6 24  1  0
  7 25  1  0
 10 26  1  0
 10 27  1  0
 10 28  1  0
 11 29  1  0
 13 30  1  0
 13 31  1  0
 14 32  1  0
 14 33  1  0
 17 34  1  0
 18 35  1  0
M  CHG  1  11   1
M  END
>  <Alignment>
1

>  <Alns>
1

>  <Conformer>
1

>  <Confs>
1

>  <Excl Vol Pen>
0

>  <FScore>
-103.052

>  <FScore+P>
-102.745

>  <FSim>
0.841

>  <Field Penalty>
0

>  <Filename>
intermediate_bace_combination_04_biphenyl~1a_spirocycles.sdf

>  <Ref>
lig_04

>  <SScore>
169.892

>  <SScore+P>
168.969

>  <SSim>
0.851

>  <Sim>
0.846

>  <_cresset_fieldpoints2>
 2
    -5     -36.767124     -43.851536      25.112194    -11.8528
    -5     -37.216961     -42.716492      19.950790     -4.6083
    -5     -37.953716     -47.855698      16.547085     -1.8111
    -6     -35.796883     -48.348618      24.845896      8.0314
    -6     -36.401268     -50.834427      22.816948      8.0384
    -6     -38.700497     -49.872261      20.343307     11.1470
    -6     -40.757504     -44.082279      14.672066      3.0294
    -6     -43.174114     -45.565685      19.429193      4.4468
    -6     -42.014492     -43.303036      20.306166      3.8651
    -7     -34.892269     -47.908833      21.739550     -2.0826
    -7     -37.194901     -42.413666      19.641174     -2.9326
    -7     -38.105270     -48.633030      18.417038     -2.5932
    -7     -40.400517     -43.072365      14.574320     -1.0163
    -7     -40.537968     -43.809296      14.247532     -1.0162
    -7     -42.031841     -42.971886      20.189213     -2.1847
    -7     -43.509064     -45.804424      19.379889     -1.5488
    -7     -37.873615     -42.237587      19.323935     -2.9248
    -7     -40.392673     -45.582920      24.816036     -2.2824
    -7     -40.239021     -49.255428      22.684502     -2.2328
    -7     -35.778690     -48.083492      25.564514     -0.9848
    -7     -35.429688     -44.023876      22.728506     -2.2617
    -8     -38.977398     -45.194122      18.260555      7.1996
    -8     -36.803127     -45.320175      18.142088      5.8704
    -8     -40.179615     -45.617767      20.205219      5.6838
    -8     -37.327847     -47.121090      23.431513      2.7888

$$$$
