pyflare_stream_756679_1:1
  xed2sdf           3D
 
 39 41  0  0  1  0  0  0  0  0999 V2000
  -41.6716  -44.6549   18.5187 C   0  0  0  0  0  0  0  0  0  0  0  0
  -40.1823  -44.9562   18.4297 C   0  0  0  0  0  0  0  0  0  0  0  0
  -39.6073  -44.6614   17.2115 C   0  0  0  0  0  0  0  0  0  0  0  0
  -38.2714  -44.8872   16.9867 C   0  0  0  0  0  0  0  0  0  0  0  0
  -37.4996  -45.4145   17.9910 C   0  0  0  0  0  0  0  0  0  0  0  0
  -38.0728  -45.7090   19.2050 C   0  0  0  0  0  0  0  0  0  0  0  0
  -39.4154  -45.4941   19.4567 C   0  0  0  0  0  0  0  0  0  0  0  0
  -39.9186  -45.8668   20.8709 C   0  0  0  0  0  0  0  0  0  0  0  0
  -41.2548  -46.6441   20.8809 C   0  0  0  0  0  0  0  0  0  0  0  0
  -39.0025  -46.8358   21.4857 N   0  3  0  0  0  0  0  0  0  0  0  0
  -38.0930  -46.5163   22.4405 C   0  0  0  0  0  0  0  0  0  0  0  0
  -37.2943  -47.4521   22.9928 N   0  0  0  0  0  0  0  0  0  0  0  0
  -37.9360  -45.2673   22.9112 O   0  0  0  0  0  0  0  0  0  0  0  0
  -38.6563  -44.1902   22.2708 C   0  0  0  0  0  0  0  0  0  0  0  0
  -38.7664  -42.8988   23.1186 C   0  0  0  0  0  0  0  0  0  0  0  0
  -39.6289  -41.9076   22.6620 F   0  0  0  0  0  0  0  0  0  0  0  0
  -38.5057  -42.8751   24.6341 C   0  0  0  0  0  0  0  0  0  0  0  0
  -37.4500  -42.3196   23.6593 C   0  0  0  0  0  0  0  0  0  0  0  0
  -40.0546  -44.6360   21.8033 C   0  0  0  0  0  0  0  0  0  0  0  0
  -40.8676  -44.9200   22.9027 F   0  0  0  0  0  0  0  0  0  0  0  0
  -38.0473  -43.9048   21.2775 H   0  0  0  0  0  0  0  0  0  0  0  0
  -40.5500  -43.7240   21.2052 H   0  0  0  0  0  0  0  0  0  0  0  0
  -42.2823  -45.6875   18.5048 H   0  0  0  0  0  0  0  0  0  0  0  0
  -41.9343  -44.0329   19.5080 H   0  0  0  0  0  0  0  0  0  0  0  0
  -42.0428  -43.9948   17.5868 H   0  0  0  0  0  0  0  0  0  0  0  0
  -40.1684  -44.2779   16.4783 H   0  0  0  0  0  0  0  0  0  0  0  0
  -37.8652  -44.6694   16.0993 H   0  0  0  0  0  0  0  0  0  0  0  0
  -36.5256  -45.5837   17.8408 H   0  0  0  0  0  0  0  0  0  0  0  0
  -37.5005  -46.0922   19.9298 H   0  0  0  0  0  0  0  0  0  0  0  0
  -42.1940  -45.8998   20.8482 H   0  0  0  0  0  0  0  0  0  0  0  0
  -41.2970  -47.4019   19.9510 H   0  0  0  0  0  0  0  0  0  0  0  0
  -41.3288  -47.2796   21.8964 H   0  0  0  0  0  0  0  0  0  0  0  0
  -39.0405  -47.7851   21.1713 H   0  0  0  0  0  0  0  0  0  0  0  0
  -37.3578  -48.4044   22.6945 H   0  0  0  0  0  0  0  0  0  0  0  0
  -36.6345  -47.2006   23.7027 H   0  0  0  0  0  0  0  0  0  0  0  0
  -39.0915  -42.0344   25.2586 H   0  0  0  0  0  0  0  0  0  0  0  0
  -38.1995  -43.9067   25.1648 H   0  0  0  0  0  0  0  0  0  0  0  0
  -36.4793  -43.0072   23.5020 H   0  0  0  0  0  0  0  0  0  0  0  0
  -37.3518  -41.1238   23.6294 H   0  0  0  0  0  0  0  0  0  0  0  0
  1  2  1  0
  2  3  2  0
  3  4  1  0
  4  5  2  0
  5  6  1  0
  6  7  2  0
  7  2  1  0
  7  8  1  0
  8  9  1  0
  8 10  1  0
 10 11  2  0
 11 12  1  0
 11 13  1  0
 13 14  1  0
 14 15  1  0
 14 19  1  0
 15 16  1  0
 15 17  1  0
 17 18  1  0
 18 15  1  0
 19  8  1  0
 19 20  1  0
  1 23  1  0
  1 24  1  0
  1 25  1  0
  3 26  1  0
  4 27  1  0
  5 28  1  0
  6 29  1  0
  9 30  1  0
  9 31  1  0
  9 32  1  0
 10 33  1  0
 12 34  1  0
 12 35  1  0
 14 21  1  0
 17 36  1  0
 17 37  1  0
 18 38  1  0
 18 39  1  0
 19 22  1  0
M  CHG  1  10   1
M  END
>  <Alignment>
1

>  <Alns>
1

>  <Conformer>
1

>  <Confs>
1

>  <Excl Vol Pen>
0

>  <FScore>
-104.524

>  <FScore+P>
-102.546

>  <FSim>
0.755

>  <Field Penalty>
0

>  <Filename>
intermediate_bace_combination_69_amide_series~11_spirocycles.sdf

>  <Ref>
lig_69

>  <SScore>
175.008

>  <SScore+P>
169.075

>  <SSim>
0.764

>  <Sim>
0.76

>  <_cresset_fieldpoints2>
 2
    -5     -39.534523     -47.687820      17.016293     -2.7974
    -5     -38.519402     -42.374210      18.933161     -3.2173
    -5     -41.932144     -42.629295      24.103128     -4.0537
    -5     -39.241879     -46.415798      24.474150     -7.8525
    -5     -35.916439     -45.471115      21.938276     -3.5399
    -6     -41.701374     -43.532475      15.265799      3.0625
    -6     -35.933846     -49.252350      23.768887      7.5819
    -6     -38.263165     -49.520069      21.396734     11.1681
    -6     -37.245705     -40.308533      26.048592      1.5580
    -6     -35.971146     -43.061581      20.990715      2.5515
    -6     -43.706051     -47.360184      19.203918      2.5935
    -7     -38.794201     -42.169262      19.541544     -3.4771
    -7     -39.344959     -43.335667      14.131270     -1.0091
    -7     -35.203426     -44.964813      15.528759     -0.9690
    -7     -35.656487     -45.000237      21.437574     -2.8353
    -7     -36.626408     -48.357239      20.304760     -2.1260
    -7     -39.969673     -47.987228      23.930195     -2.3781
    -7     -42.898197     -42.811813      21.499598     -2.0388
    -7     -44.174866     -47.070877      19.493814     -1.3167
    -7     -39.042000     -46.355377      25.170221     -2.5064
    -7     -40.017487     -48.264614      17.814196     -2.4277
    -7     -35.925198     -45.112141      24.815948     -2.0760
    -7     -41.771683     -42.648369      25.054432     -1.5933
    -7     -39.028797     -39.435097      24.794325     -1.3785
    -7     -43.854977     -46.287941      22.869652     -1.1866
    -8     -38.848217     -45.182846      18.218885      7.2050
    -8     -40.546883     -45.412296      19.724350      5.7276
    -8     -40.781059     -45.431240      21.457916      5.6284
    -8     -38.579750     -42.652859      23.404634      6.0002
    -8     -39.594292     -43.546619      22.421005      5.6573
    -8     -39.969250     -44.780525      21.758776      5.3763

$$$$
